Version 4
SHEET 1 880 680
WIRE 480 80 480 48
WIRE 480 80 448 80
WIRE 800 80 480 80
WIRE -160 96 -288 96
WIRE -64 96 -160 96
WIRE -16 96 -16 80
WIRE -16 96 -64 96
WIRE 16 96 -16 96
WIRE 368 96 304 96
WIRE 448 96 448 80
WIRE 448 96 368 96
WIRE 368 128 368 96
WIRE 608 144 480 144
WIRE 608 160 608 144
WIRE 800 160 608 160
WIRE -64 208 -64 96
WIRE 16 208 -64 208
WIRE 368 208 304 208
WIRE 368 256 368 208
WIRE -288 288 -288 176
WIRE 160 288 160 272
WIRE 160 288 -288 288
WIRE 160 304 160 288
FLAG 160 304 0
FLAG 480 144 0
FLAG -160 160 0
FLAG 368 336 0
FLAG -16 80 Vin
FLAG 480 48 Vout
SYMBOL PowerProducts\\LT1965 160 160 R0
SYMATTR InstName U1
SYMBOL cap -176 96 R0
SYMATTR InstName C1
SYMATTR Value 10µ
SYMBOL cap 464 80 R0
SYMATTR InstName C2
SYMATTR Value 47000µ
SYMATTR SpiceLine Rser=0.02
SYMBOL res 352 112 R0
SYMATTR InstName R1
SYMATTR Value 17.5k
SYMBOL res 352 240 R0
SYMATTR InstName R2
SYMATTR Value 10k
SYMBOL voltage -288 80 R0
SYMATTR InstName V1
SYMATTR Value 5
SYMBOL res 784 64 R0
SYMATTR InstName R3
SYMATTR Value 300
TEXT -322 360 Left 2 !.noise V[Vout] V1 dec 2000 1 100k
