Version 4
SHEET 1 880 680
WIRE -112 96 -112 32
WIRE 0 96 -112 96
WIRE 32 96 0 96
WIRE 96 96 32 96
WIRE 448 96 384 96
WIRE 512 96 512 32
WIRE 512 96 448 96
WIRE 624 96 512 96
WIRE 752 96 624 96
WIRE 752 128 752 96
WIRE 0 208 0 96
WIRE 96 208 0 208
WIRE 448 208 448 176
WIRE 448 208 384 208
WIRE 240 288 240 272
WIRE 448 288 240 288
WIRE 512 288 512 160
WIRE 512 288 448 288
WIRE 240 304 240 288
WIRE 752 304 752 208
WIRE 752 304 240 304
WIRE 240 336 240 304
FLAG 32 160 0
FLAG 240 336 0
FLAG -112 32 vin
FLAG 512 32 Vout
FLAG -112 176 0
FLAG 624 160 0
SYMBOL PowerProducts\\LT1965 240 160 R0
SYMATTR InstName U1
SYMBOL voltage -112 80 R0
SYMATTR InstName V1
SYMATTR Value 24
SYMBOL cap 16 96 R0
SYMATTR InstName C1
SYMATTR Value 10µ
SYMBOL cap 496 96 R0
SYMATTR InstName C2
SYMATTR Value 150µ
SYMBOL res 432 192 R0
SYMATTR InstName R1
SYMATTR Value 10k
SYMBOL res 432 80 R0
SYMATTR InstName R2
SYMATTR Value 112k
SYMBOL res 736 112 R0
SYMATTR InstName R3
SYMATTR Value 300
SYMBOL cap 608 96 R0
SYMATTR InstName C3
SYMATTR Value 47000µ
TEXT -146 360 Left 2 !.noise v[Vout] v1 dec 10 10 100k
