Version 4
SHEET 1 880 680
WIRE -128 112 -128 64
WIRE -48 112 -128 112
WIRE 16 112 -48 112
WIRE 64 112 16 112
WIRE 432 112 352 112
WIRE 560 112 432 112
WIRE 736 112 736 48
WIRE 736 112 560 112
WIRE 16 224 16 112
WIRE 64 224 16 224
WIRE 432 224 432 192
WIRE 432 224 352 224
WIRE 208 304 208 288
WIRE 432 304 208 304
WIRE 208 320 208 304
FLAG 208 320 0
FLAG -48 176 0
FLAG 560 176 0
FLAG 736 192 0
FLAG -128 192 0
FLAG 736 48 Vout
FLAG -128 64 Vin
SYMBOL PowerProducts\\LT1965 208 176 R0
SYMATTR InstName U1
SYMBOL voltage -128 96 R0
WINDOW 123 0 0 Left 2
WINDOW 39 0 0 Left 2
SYMATTR InstName V1
SYMATTR Value 6
SYMBOL cap -64 112 R0
SYMATTR InstName C1
SYMATTR Value 10µ
SYMBOL res 416 96 R0
SYMATTR InstName R2
SYMATTR Value 35k
SYMBOL res 416 208 R0
SYMATTR InstName R1
SYMATTR Value 10k
SYMBOL cap 544 112 R0
SYMATTR InstName C2
SYMATTR Value 100µ
SYMBOL res 720 96 R0
SYMATTR InstName R3
SYMATTR Value 15
TEXT -162 344 Left 2 !.noise V[vout] v1 dec 10 1 10meg
