Version 4
SHEET 1 880 680
WIRE -112 96 -112 32
WIRE 0 96 -112 96
WIRE 32 96 0 96
WIRE 96 96 32 96
WIRE 448 96 384 96
WIRE 512 96 512 32
WIRE 512 96 448 96
WIRE 0 208 0 96
WIRE 96 208 0 208
WIRE 448 208 448 176
WIRE 448 208 384 208
WIRE 240 288 240 272
WIRE 448 288 240 288
WIRE 512 288 512 160
WIRE 512 288 448 288
WIRE 240 336 240 288
FLAG 32 160 0
FLAG 240 336 0
FLAG -112 32 vin
FLAG 512 32 Vout
FLAG -112 176 0
SYMBOL PowerProducts\\LT1965 240 160 R0
SYMATTR InstName U1
SYMBOL voltage -112 80 R0
SYMATTR InstName V1
SYMATTR Value 15
SYMBOL cap 16 96 R0
SYMATTR InstName C1
SYMATTR Value 10µ
SYMBOL cap 496 96 R0
SYMATTR InstName C2
SYMATTR Value 47000µ
SYMBOL res 432 192 R0
SYMATTR InstName R1
SYMATTR Value 10k
SYMBOL res 432 80 R0
SYMATTR InstName R2
SYMATTR Value 39.2k
TEXT -146 360 Left 2 !.tran 2
